examples/Custom_controls_example/DSSfiles/Lines.dss
New Line.OH_B13552 bus1=B12541.1 bus2=B13552.1 length=88.696797 units=m linecode=OH-1X_4CU_4CUN phases=1 enabled=True
New Line.OH_B41869 bus1=B41868.1.2 bus2=B41869.1.2 length=57.911998 units=m linecode=OH-2X_4CU_4CUN phases=2 enabled=True
New Line.OH_B34986 bus1=B4609.3 bus2=B34986.3 length=106.3752 units=m linecode=OH-1X_4CU_4CUN phases=1 enabled=True
New Line.OH_G43133 bus1=G43132.3 bus2=G43133.3 length=46.329599 units=m linecode=OH-1X_4CU_4CUN phases=1 enabled=True
New Line.OH_B18916 bus1=B18915.1.2.3 bus2=B18916.1.2.3 length=45.719999 units=m linecode=OH-3X_1/0AAAC_4CUN phases=3 enabled=True
New Line.OH_5862128364 bus1=B4833.1.2.3 bus2=5862128364.1.2.3 length=24.383999 units=m linecode=OH-3X_2AAAC_2AAACN phases=3 enabled=True
New Line.OH_B4784 bus1=B4787.1.2.3 bus2=B4784.1.2.3 length=32.308799 units=m linecode=OH-3X_477AAC_4/0AAACN phases=3 enabled=True
New Line.OH_B45835 bus1=B45833.2 bus2=B45835.2 length=130.1496 units=m linecode=OH-1X_4CU_4CUN phases=1 enabled=True
New Line.OH_5925528209A bus1=5925528209.3 bus2=5925528209A.3 length=61.264798 units=m linecode=OH-1X_1/0ACSR_1/0ACSRN phases=1 enabled=True
New Line.OH_B50640 bus1=6084829720.1 bus2=B50640.1 length=113.6904 units=m linecode=OH-1X_4CU_4CUN phases=1 enabled=True
New Line.OH_B4805 bus1=B4806.1.2.3 bus2=B4805.1.2.3 length=24.688799 units=m linecode=OH-3X_477AAC_4/0AAACN phases=3 enabled=True
New Line.OH_B4710 bus1=B4711.1.2.3 bus2=B4710.1.2.3 length=35.966399 units=m linecode=OH-3X_477AAC_4CUN phases=3 enabled=True
New Line.OH_B56678 bus1=B56675.2 bus2=B56678.2 length=152.0952 units=m linecode=OH-1X_4CU_4CUN phases=1 enabled=True
New Line.OH_B4859 bus1=B4861.1.2.3 bus2=B4859.1.2.3 length=56.997598 units=m linecode=OH-3X_477AAC_4/0AAACN phases=3 enabled=True
New Line.OH_B41240 bus1=B10374.1 bus2=B41240.1 length=51.511198 units=m linecode=OH-1X_4CU_4CUN phases=1 enabled=True
New Line.OH_B55546 bus1=B55545.3 bus2=B55546.3 length=30.479999 units=m linecode=OH-1X_4CU_4CUN phases=1 enabled=True
New Line.OH_B18979 bus1=B18978.3 bus2=B18979.3 length=46.634399 units=m linecode=OH-1X_4CU_4CUN phases=1 enabled=True
New Line.OH_B4982 bus1=B4987.1.2.3 bus2=B4982.1.2.3 length=189.58559 units=m linecode=OH-3X_477AAC_4/0AAACN phases=3 enabled=True
New Line.OH_B18902 bus1=B18901.1.2.3 bus2=B18902.1.2.3 length=38.099999 units=m linecode=OH-3X_1/0AAAC_1/0AAACN phases=3 enabled=True
New Line.OH_B2532 bus1=B2526.1.2.3 bus2=B2532.1.2.3 length=93.268797 units=m linecode=OH-3X_477AAC_4/0AAACN phases=3 enabled=True
New Line.OH_B60891 bus1=B60890.2 bus2=B60891.2 length=48.158398 units=m linecode=OH-1X_4CU_4CUN phases=1 enabled=True
New Line.OH_B47668 bus1=B47667.1.2.3 bus2=B47668.1.2.3 length=60.959998 units=m linecode=OH-3X_4CU_4CUN phases=3 enabled=True
New Line.OH_B57845 bus1=B41462.3 bus2=B57845.3 length=23.164799 units=m linecode=OH-1X_4CU_4CUN phases=1 enabled=True
New Line.OH_B4891 bus1=B4896.1.2.3 bus2=B4891.1.2.3 length=117.6528 units=m linecode=OH-3X_477AAC_4/0AAACN phases=3 enabled=True
New Line.OH_B18858 bus1=B18856.1.2.3 bus2=B18858.1.2.3 length=89.611197 units=m linecode=OH-3X_1/0AAAC_1/0AAACN phases=3 enabled=True
New Line.OH_B33451 bus1=B19064.1.3 bus2=B33451.1.3 length=79.857597 units=m linecode=OH-2X_4CU_4CUN phases=2 enabled=True
New Line.OH_B61746 bus1=B60403.2 bus2=B61746.2 length=99.669597 units=m linecode=OH-1X_4CU_4CUN phases=1 enabled=True
New Line.OH_B56664 bus1=B56663.2 bus2=B56664.2 length=44.500799 units=m linecode=OH-1X_4CU_4CUN phases=1 enabled=True
New Line.OH_B39819 bus1=B39817.3 bus2=B39819.3 length=121.92 units=m linecode=OH-1X_4CU_4CUN phases=1 enabled=True
New Line.OH_5851228580 bus1=B16708.3 bus2=5851228580.3 length=88.391997 units=m linecode=OH-1X_2AAAC_2AAACN phases=1 enabled=True
New Line.OH_B18971 bus1=B18969.3 bus2=B18971.3 length=87.172797 units=m linecode=OH-1X_4CU_4CUN phases=1 enabled=True
New Line.OH_5918528239 bus1=G42392.3 bus2=5918528239.3 length=27.431999 units=m linecode=OH-1X_2AAAC_2AAACN phases=1 enabled=True
New Line.OH_B8019 bus1=B19004.3 bus2=B8019.3 length=112.1664 units=m linecode=OH-1X_4CU_4CUN phases=1 enabled=True
New Line.OH_B31756 bus1=B2648.3 bus2=B31756.3 length=188.06159 units=m linecode=OH-1X_477AAC_4/0AAACN phases=1 enabled=True
New Line.OH_B60843 bus1=B60842.3 bus2=B60843.3 length=48.158398 units=m linecode=OH-1X_4CU_4CUN phases=1 enabled=True
New Line.OH_6095529388 bus1=B18997.3 bus2=6095529388.3 length=26.212799 units=m linecode=OH-1X_2AAAC_2AAACN phases=1 enabled=True
New Line.OH_B44432 bus1=B26169.3 bus2=B44432.3 length=102.7176 units=m linecode=OH-1X_4CU_4CUN phases=1 enabled=True
New Line.OH_B52584 bus1=B52582.2 bus2=B52584.2 length=162.45839 units=m linecode=OH-1X_4CU_4CUN phases=1 enabled=True
New Line.OH_B41463 bus1=B24504.3 bus2=B41463.3 length=51.206398 units=m linecode=OH-1X_4CU_4CUN phases=1 enabled=True
New Line.OH_5905728658 bus1=5906628649.2 bus2=5905728658.2 length=38.099999 units=m linecode=OH-1X_2AAAC_2AAACN phases=1 enabled=True
New Line.OH_B24227 bus1=B15845.3 bus2=B24227.3 length=44.195999 units=m linecode=OH-1X_4CU_4CUN phases=1 enabled=True
New Line.OH_B18884 bus1=B18882.1.2.3 bus2=B18884.1.2.3 length=91.439997 units=m linecode=OH-3X_1/0AAAC_1/0AAACN phases=3 enabled=True
New Line.OH_B15821 bus1=B13932.3 bus2=B15821.3 length=102.4128 units=m linecode=OH-1X_4CU_4CUN phases=1 enabled=True
New Line.OH_B388 bus1=B4888.1.2.3 bus2=B388.1.2.3 length=35.661599 units=m linecode=OH-3X_4CU_4CUN phases=3 enabled=True
New Line.OH_B18938 bus1=B18936.1.2.3 bus2=B18938.1.2.3 length=91.439997 units=m linecode=OH-3X_4CU_4CUN phases=3 enabled=True
New Line.OH_B47665 bus1=B19046.1.2.3 bus2=B47665.1.2.3 length=15.24 units=m linecode=OH-3X_4CU_4CUN phases=3 enabled=True
New Line.OH_B61248 bus1=B60928.3 bus2=B61248.3 length=18.897599 units=m linecode=OH-1X_4CU_4CUN phases=1 enabled=True
New Line.OH_B18850 bus1=B18849.1.2.3 bus2=B18850.1.2.3 length=44.195998 units=m linecode=OH-3X_1/0AAAC_1/0AAACN phases=3 enabled=True
New Line.OH_B4962 bus1=B4963.1.2.3 bus2=B4962.1.2.3 length=64.007998 units=m linecode=OH-3X_477AAC_4/0AAACN phases=3 enabled=True
New Line.OH_B18866 bus1=B18865reg.1.2.3 bus2=B18866.1.2.3 length=45.719998 units=m linecode=OH-3X_1/0AAAC_1/0AAACN phases=3 enabled=True
New Line.UG_6060229368 bus1=B19018.2 bus2=6060229368.2 length=203.60639 units=m linecode=UG-1C1/0ALURD_15 phases=1 enabled=True
New Line.OH_B52162 bus1=B46976.1 bus2=B52162.1 length=69.799198 units=m linecode=OH-1X_4CU_4CUN phases=1 enabled=True
New Line.OH_G43337 bus1=G43336.1 bus2=G43337.1 length=35.966399 units=m linecode=OH-1X_2AAAC_2AAACN phases=1 enabled=True
New Line.OH_B66283 bus1=B4579.1.2.3 bus2=B66283.1.2.3 length=221.89439 units=m linecode=OH-3X_2CU_4CUN phases=3 enabled=True
New Line.OH_B18977 bus1=B18976.3 bus2=B18977.3 length=37.795199 units=m linecode=OH-1X_4CU_4CUN phases=1 enabled=True
New Line.OH_B18839 bus1=B18837.1.2.3 bus2=B18839.1.2.3 length=91.439997 units=m linecode=OH-3X_1/0AAAC_1/0AAACN phases=3 enabled=True
New Line.OH_B46251 bus1=B46250.3 bus2=B46251.3 length=45.110399 units=m linecode=OH-1X_4CU_4CUN phases=1 enabled=True
New Line.OH_B60755 bus1=B18926.3 bus2=B60755.3 length=27.431999 units=m linecode=OH-1X_4CU_4CUN phases=1 enabled=True
New Line.OH_B19042 bus1=B19040.1.2.3 bus2=B19042.1.2.3 length=74.980798 units=m linecode=OH-3X_4CU_4CUN phases=3 enabled=True
New Line.OH_B18925 bus1=B18924.1.2.3 bus2=B18925.1.2.3 length=44.195999 units=m linecode=OH-3X_4CU_4CUN phases=3 enabled=True
New Line.OH_B22569 bus1=B22561.1 bus2=B22569.1 length=149.0472 units=m linecode=OH-1X_477AAC_4/0AAACN phases=1 enabled=True
New Line.OH_B4588 bus1=B4591.1.2.3 bus2=B4588.1.2.3 length=67.665598 units=m linecode=OH-3X_2CU_4CUN phases=3 enabled=True
New Line.OH_B23880 bus1=B23879.3 bus2=B23880.3 length=82.600797 units=m linecode=OH-1X_4CU_4CUN phases=1 enabled=True
New Line.OH_B3066 bus1=B9952.2.3 bus2=B3066.2.3 length=91.135197 units=m linecode=OH-2X_2CU_4CUN phases=2 enabled=True
New Line.OH_B60404 bus1=B60407.2 bus2=B60404.2 length=183.48959 units=m linecode=OH-1X_4CU_4CUN phases=1 enabled=True
New Line.OH_B5199 bus1=B13630.1.2.3 bus2=B5199.1.2.3 length=38.099999 units=m linecode=OH-3V_477AAC_477AACN phases=3 enabled=True
New Line.OH_B63365 bus1=B63363.2 bus2=B63365.2 length=64.617598 units=m linecode=OH-1X_4CU_4CUN phases=1 enabled=True
New Line.OH_B26203 bus1=B26202.3 bus2=B26203.3 length=46.024799 units=m linecode=OH-1X_4CU_4CUN phases=1 enabled=True
New Line.OH_B18823 bus1=B4824.1.2.3 bus2=B18823.1.2.3 length=12.192 units=m linecode=OH-3X_2AAAC_2AAACN phases=3 enabled=True
New Line.OH_B61253 bus1=B18938.3 bus2=B61253.3 length=23.164799 units=m linecode=OH-1X_4CU_4CUN phases=1 enabled=True
New Line.OH_B23869 bus1=B23868.3 bus2=B23869.3 length=76.199998 units=m linecode=OH-1X_4CU_4CUN phases=1 enabled=True
New Line.OH_B56446 bus1=B2547.1 bus2=B56446.1 length=24.383999 units=m linecode=OH-1X_477AAC_4/0AAACN phases=1 enabled=True
New Line.OH_6040429119 bus1=6039329105.3 bus2=6040429119.3 length=53.339998 units=m linecode=OH-1X_2AAAC_2AAACN phases=1 enabled=True
New Line.OH_B43429 bus1=B43427.1.2 bus2=B43429.1.2 length=72.847198 units=m linecode=OH-2X_4CU_4CUN phases=2 enabled=True
New Line.OH_B19183 bus1=B19181.1.2.3 bus2=B19183.1.2.3 length=64.617598 units=m linecode=OH-3X_477AAC_4/0AAACN phases=3 enabled=True
New Line.OH_5992128369 bus1=G36581.3 bus2=5992128369.3 length=73.151998 units=m linecode=OH-1X_2AAAC_2AAACN phases=1 enabled=True
New Line.OH_B18986 bus1=B18982.3 bus2=B18986.3 length=179.83199 units=m linecode=OH-1X_4CU_4CUN phases=1 enabled=True
New Line.OH_B13651 bus1=B8594.1.2.3 bus2=B13651.1.2.3 length=51.815998 units=m linecode=OH-3X_477AAC_4CUN phases=3 enabled=True
New Line.OH_6034528885 bus1=6031828869.3 bus2=6034528885.3 length=94.792797 units=m linecode=OH-1X_2AAAC_2AAACN phases=1 enabled=True
New Line.OH_6034628876 bus1=6034528885.3 bus2=6034628876.3 length=27.431999 units=m linecode=OH-1X_2AAAC_4/0AAACN phases=1 enabled=True
New Line.OH_B62634 bus1=B37083.1 bus2=B62634.1 length=24.079199 units=m linecode=OH-1X_2AAAC_2AAACN phases=1 enabled=True
New Line.OH_B17575 bus1=B3065.2.3 bus2=B17575.2.3 length=50.291998 units=m linecode=OH-2X_4CU_4CUN phases=2 enabled=True
New Line.OH_B10925 bus1=B4588.3 bus2=B10925.3 length=47.853598 units=m linecode=OH-1X_2CU_4CUN phases=1 enabled=True
New Line.OH_B23406 bus1=B23405.1 bus2=B23406.1 length=81.381597 units=m linecode=OH-1X_4CU_4CUN phases=1 enabled=True
New Line.OH_B4594 bus1=B4598.1.2.3 bus2=B4594.1.2.3 length=143.8656 units=m linecode=OH-3X_2CU_4CUN phases=3 enabled=True
New Line.OH_6018228840 bus1=B52160.3 bus2=6018228840.3 length=56.387998 units=m linecode=OH-1X_2AAAC_2AAACN phases=1 enabled=True
New Line.OH_5934528183 bus1=5938028173.3 bus2=5934528183.3 length=109.728 units=m linecode=OH-1X_2AAAC_2AAACN phases=1 enabled=True
New Line.OH_B5185 bus1=B5186.1.2.3 bus2=B5185.1.2.3 length=42.976799 units=m linecode=OH-3X_477AAC_4/0AAACN phases=3 enabled=True
New Line.OH_B48180 bus1=B48179.3 bus2=B48180.3 length=58.216798 units=m linecode=OH-1X_4CU_4CUN phases=1 enabled=True
New Line.UG_5985928722 bus1=B18911.1 bus2=5985928722.1 length=12.192 units=m linecode=UG-1C1/0ALURD_15 phases=1 enabled=True
New Line.OH_G35573 bus1=G35572.1.2.3 bus2=G35573.1.2.3 length=40.233599 units=m linecode=OH-3X_4CU_4CUN phases=3 enabled=True
New Line.OH_B4867 bus1=B10227.1.3 bus2=B4867.1.3 length=23.469599 units=m linecode=OH-2X_477AAC_4/0AAACN phases=2 enabled=True
New Line.OH_B59582 bus1=B39817.3 bus2=B59582.3 length=53.035198 units=m linecode=OH-1X_4CU_4CUN phases=1 enabled=True
New Line.OH_G33468 bus1=G33465.2 bus2=G33468.2 length=160.93439 units=m linecode=OH-1X_4CU_4CUN phases=1 enabled=True
New Line.OH_B50641 bus1=B50640.1 bus2=B50641.1 length=21.335999 units=m linecode=OH-1X_4CU_4CUN phases=1 enabled=True
New Line.OH_B51327 bus1=B42556.2 bus2=B51327.2 length=48.767998 units=m linecode=OH-1X_4CU_4CUN phases=1 enabled=True
New Line.OH_B16708 bus1=B16709.3 bus2=B16708.3 length=54.863998 units=m linecode=OH-1X_2AAAC_2AAACN phases=1 enabled=True
New Line.OH_B56679 bus1=B56678.2 bus2=B56679.2 length=60.959998 units=m linecode=OH-1X_4CU_4CUN phases=1 enabled=True
New Line.OH_B4861 bus1=B4862.1.2.3 bus2=B4861.1.2.3 length=35.051999 units=m linecode=OH-3X_477AAC_4/0AAACN phases=3 enabled=True
New Line.OH_6000828811 bus1=B18921.1.2.3 bus2=6000828811.1.2.3 length=67.360798 units=m linecode=OH-3X_1/0AAAC_4CUN phases=3 enabled=True
New Line.OH_B18995 bus1=B18989.3 bus2=B18995.3 length=272.49119 units=m linecode=OH-1X_4CU_4CUN phases=1 enabled=True
New Line.OH_B55822 bus1=B39822.3 bus2=B55822.3 length=59.435998 units=m linecode=OH-1X_4CU_4CUN phases=1 enabled=True
New Line.OH_G42394 bus1=G42393.3 bus2=G42394.3 length=33.223199 units=m linecode=OH-1X_4CU_4CUN phases=1 enabled=True
New Line.OH_B36183 bus1=B36181.3 bus2=B36183.3 length=157.88639 units=m linecode=OH-1X_4CU_4CUN phases=1 enabled=True
New Line.OH_B62294 bus1=B61236.3 bus2=B62294.3 length=68.275198 units=m linecode=OH-1X_4CU_4CUN phases=1 enabled=True
New Line.OH_G35320 bus1=G35318.2 bus2=G35320.2 length=60.959998 units=m linecode=OH-1X_4CU_4CUN phases=1 enabled=True
New Line.OH_B61013 bus1=B61012.3 bus2=B61013.3 length=62.179198 units=m linecode=OH-1X_4CU_4CUN phases=1 enabled=True
New Line.OH_5864528351 bus1=5863228358.1.2.3 bus2=5864528351.1.2.3 length=48.767998 units=m linecode=OH-3X_2AAAC_2AAACN phases=3 enabled=True
New Line.OH_B41876 bus1=B41874.1.2 bus2=B41876.1.2 length=91.135197 units=m linecode=OH-2X_4CU_4CUN phases=2 enabled=True
New Line.OH_G40623 bus1=B12328.1 bus2=G40623.1 length=57.607198 units=m linecode=OH-1X_4CU_4CUN phases=1 enabled=True
New Line.OH_B34541 bus1=B24157.1.2.3 bus2=B34541.1.2.3 length=60.045598 units=m linecode=OH-3X_4CU_4CUN phases=3 enabled=True
New Line.OH_B34545 bus1=B34542.1.2.3 bus2=B34545.1.2.3 length=321.56399 units=m linecode=OH-3X_4CU_4CUN phases=3 enabled=True
New Line.OH_B19071 bus1=B19069.3 bus2=B19071.3 length=64.312798 units=m linecode=OH-1X_4CU_4CUN phases=1 enabled=True
New Line.OH_B39820 bus1=G40318.3 bus2=B39820.3 length=36.575999 units=m linecode=OH-1X_4CU_4CUN phases=1 enabled=True
New Line.OH_5857829226 bus1=B55237.3 bus2=5857829226.3 length=30.479999 units=m linecode=OH-1X_2AAAC_2AAACN phases=1 enabled=True
New Line.OH_G36737 bus1=B4541.1 bus2=G36737.1 length=27.431999 units=m linecode=OH-1X_2CU_4CUN phases=1 enabled=True
New Line.OH_B9951 bus1=B12753.2.3 bus2=B9951.2.3 length=48.463198 units=m linecode=OH-2X_4CU_4CUN phases=2 enabled=True
New Line.OH_5920428274 bus1=5918528239.3 bus2=5920428274.3 length=120.396 units=m linecode=OH-1X_2AAAC_2AAACN phases=1 enabled=True
New Line.OH_B24281 bus1=B24280.3 bus2=B24281.3 length=44.805599 units=m linecode=OH-1X_4CU_4CUN phases=1 enabled=True
New Line.OH_B18912 bus1=B18911.1.2.3 bus2=B18912.1.2.3 length=56.387998 units=m linecode=OH-3X_1/0AAAC_4CUN phases=3 enabled=True
New Line.OH_B16655 bus1=B42005.1 bus2=B16655.1 length=220.37039 units=m linecode=OH-1X_4CU_4CUN phases=1 enabled=True
New Line.OH_B60940 bus1=B60939.3 bus2=B60940.3 length=88.696797 units=m linecode=OH-1X_4CU_4CUN phases=1 enabled=True
New Line.OH_B4579 bus1=B17220.1.2.3 bus2=B4579.1.2.3 length=57.911998 units=m linecode=OH-3X_2CU_4CUN phases=3 enabled=True
New Line.OH_B47686 bus1=B978.3 bus2=B47686.3 length=43.586399 units=m linecode=OH-1X_4CU_4CUN phases=1 enabled=True
New Line.OH_B4994 bus1=B4995.1.2.3 bus2=B4994.1.2.3 length=36.271199 units=m linecode=OH-3X_477AAC_4/0AAACN phases=3 enabled=True
New Line.OH_B61632 bus1=B61631.1.2.3 bus2=B61632.1.2.3 length=118.2624 units=m linecode=OH-3X_4CU_4CUN phases=3 enabled=True
New Line.OH_B18886 bus1=B18884.1.2.3 bus2=B18886.1.2.3 length=88.391997 units=m linecode=OH-3X_1/0AAAC_1/0AAACN phases=3 enabled=True
New Line.OH_B18898 bus1=B18887.1.2.3 bus2=B18898.1.2.3 length=510.53998 units=m linecode=OH-3X_1/0AAAC_1/0AAACN phases=3 enabled=True
New Line.OH_5979429639 bus1=5982129657.2 bus2=5979429639.2 length=135.0264 units=m linecode=OH-1X_2AAAC_2AAACN phases=1 enabled=True
New Line.OH_B18941 bus1=6022828946.1.2.3 bus2=B18941.1.2.3 length=67.055998 units=m linecode=OH-3X_4CU_4CUN phases=3 enabled=True
New Line.OH_B47666 bus1=B47665.1.2.3 bus2=B47666.1.2.3 length=61.264798 units=m linecode=OH-3X_4CU_4CUN phases=3 enabled=True
New Line.OH_B29518 bus1=B394.2 bus2=B29518.2 length=85.648797 units=m linecode=OH-1X_4CU_4CUN phases=1 enabled=True
New Line.OH_G40138 bus1=G43124.3 bus2=G40138.3 length=60.350398 units=m linecode=OH-1X_4CU_4CUN phases=1 enabled=True
New Line.OH_B18855 bus1=B18853.1.2.3 bus2=B18855.1.2.3 length=89.306397 units=m linecode=OH-3X_1/0AAAC_1/0AAACN phases=3 enabled=True
New Line.OH_B4673 bus1=B4676.1.2.3 bus2=B4673.1.2.3 length=89.915997 units=m linecode=OH-3X_4CU_4CUN phases=3 enabled=True
New Line.OH_B60874 bus1=B60873.3 bus2=B60874.3 length=60.959998 units=m linecode=OH-1X_4CU_4CUN phases=1 enabled=True
New Line.OH_B19064 bus1=B19062.1.3 bus2=B19064.1.3 length=89.611197 units=m linecode=OH-2X_4CU_4CUN phases=2 enabled=True
New Line.OH_B45445 bus1=B45444.3 bus2=B45445.3 length=50.291998 units=m linecode=OH-1X_4CU_4CUN phases=1 enabled=True
New Line.OH_B4888 bus1=B4889.1.2.3 bus2=B4888.1.2.3 length=42.367199 units=m linecode=OH-3X_477AAC_4/0AAACN phases=3 enabled=True
New Line.OH_B57500 bus1=B17925.2 bus2=B57500.2 length=93.268797 units=m linecode=OH-1X_4CU_4CUN phases=1 enabled=True
New Line.OH_B14324 bus1=B19028.1.2 bus2=B14324.1.2 length=27.431999 units=m linecode=OH-2X_4CU_4CUN phases=2 enabled=True
New Line.OH_B60757 bus1=B60755.3 bus2=B60757.3 length=77.114398 units=m linecode=OH-1X_4CU_4CUN phases=1 enabled=True
New Line.OH_B60841 bus1=B15824.3 bus2=B60841.3 length=45.719999 units=m linecode=OH-1X_4CU_4CUN phases=1 enabled=True
New Line.OH_G34723 bus1=G34720.3 bus2=G34723.3 length=127.7112 units=m linecode=OH-1X_4CU_4CUN phases=1 enabled=True
New Line.OH_B22571 bus1=B4731.3 bus2=B22571.3 length=74.675998 units=m linecode=OH-1X_4CU_4CUN phases=1 enabled=True
New Line.OH_B52580 bus1=B52575.2 bus2=B52580.2 length=196.29119 units=m linecode=OH-1X_4CU_4CUN phases=1 enabled=True
New Line.OH_B13555 bus1=B13554.1 bus2=B13555.1 length=87.782397 units=m linecode=OH-1X_4CU_4CUN phases=1 enabled=True
New Line.OH_B61615 bus1=B61613.3 bus2=B61615.3 length=91.439997 units=m linecode=OH-1X_4CU_4CUN phases=1 enabled=True
New Line.OH_B23889 bus1=B23885.3 bus2=B23889.3 length=200.25359 units=m linecode=OH-1X_4CU_4CUN phases=1 enabled=True
New Line.OH_B56616 bus1=B56618.1 bus2=B56616.1 length=107.5944 units=m linecode=OH-1X_4CU_4CUN phases=1 enabled=True
New Line.OH_B43440 bus1=B43439.1.2 bus2=B43440.1.2 length=61.264798 units=m linecode=OH-2X_4CU_4CUN phases=2 enabled=True
New Line.OH_5973729472 bus1=B52580.2 bus2=5973729472.2 length=25.603199 units=m linecode=OH-1X_2AAAC_DEFAULT phases=1 enabled=True
New Line.OH_G44632 bus1=G44631.2 bus2=G44632.2 length=18.287999 units=m linecode=OH-1X_2AAAC_2AAACN phases=1 enabled=True
New Line.OH_5904428572 bus1=B14647.2 bus2=5904428572.2 length=159.41039 units=m linecode=OH-1X_4CU_4CUN phases=1 enabled=True
New Line.OH_B41085 bus1=B41086.2.3 bus2=B41085.2.3 length=71.627998 units=m linecode=OH-2X_4CU_4CUN phases=2 enabled=True
New Line.OH_B19021 bus1=B19019.1.2 bus2=B19021.1.2 length=91.744797 units=m linecode=OH-2X_4CU_4CUN phases=2 enabled=True
New Line.OH_6053129341 bus1=6063329279.2 bus2=6053129341.2 length=364.23599 units=m linecode=OH-1X_2AAAC_2AAACN phases=1 enabled=True
New Line.OH_6059129162 bus1=B18968.3 bus2=6059129162.3 length=15.24 units=m linecode=OH-1X_2AAAC_2AAACN phases=1 enabled=True
New Line.OH_B60934 bus1=B60933.3 bus2=B60934.3 length=60.655198 units=m linecode=OH-1X_4CU_4CUN phases=1 enabled=True
New Line.OH_5993629800 bus1=B56678.2 bus2=5993629800.2 length=60.959998 units=m linecode=OH-1X_2AAAC_2AAACN phases=1 enabled=True
New Line.OH_B63785 bus1=B18921.3 bus2=B63785.3 length=18.287999 units=m linecode=OH-1X_4CU_4CUN phases=1 enabled=True
New Line.OH_B59172 bus1=B59171.2 bus2=B59172.2 length=59.435998 units=m linecode=OH-1X_4CU_4CUN phases=1 enabled=True
New Line.OH_B4618 bus1=B4617.1.2.3 bus2=B4618.1.2.3 length=41.147999 units=m linecode=OH-3X_1/0CU_1CUN phases=3 enabled=True
New Line.OH_B4619 bus1=B4618.1.2.3 bus2=B4619.1.2.3 length=40.233599 units=m linecode=OH-3X_1/0CU_1CUN phases=3 enabled=True
New Line.OH_5962929303 bus1=5965129301.2 bus2=5962929303.2 length=70.103998 units=m linecode=OH-1X_2AAAC_2AAACN phases=1 enabled=True
New Line.OH_B4826 bus1=B4825.1.2.3 bus2=B4826.1.2.3 length=29.565599 units=m linecode=OH-3X_477AAC_1/0AAACN phases=3 enabled=True
New Line.OH_G33473 bus1=G33472.2 bus2=G33473.2 length=45.719999 units=m linecode=OH-1X_4CU_4CUN phases=1 enabled=True
New Line.OH_B28551 bus1=B4857.1.2.3 bus2=B28551.1.2.3 length=36.271199 units=m linecode=OH-3X_2AL_2ALN phases=3 enabled=True
New Line.OH_B4795 bus1=B4796.1.2.3 bus2=B4795.1.2.3 length=29.260799 units=m linecode=OH-3X_477AAC_4/0AAACN phases=3 enabled=True
New Line.OH_B18968 bus1=B18967.1.2.3 bus2=B18968.1.2.3 length=46.939198 units=m linecode=OH-3X_4CU_4CUN phases=3 enabled=True
New Line.OH_B4600 bus1=B4601.1.2.3 bus2=B4600.1.2.3 length=41.147999 units=m linecode=OH-3X_477AAC_1/0AAACN phases=3 enabled=True
New Line.OH_B42551 bus1=B42550.2 bus2=B42551.2 length=60.045598 units=m linecode=OH-1X_4CU_4CUN phases=1 enabled=True
New Line.OH_B5186 bus1=B5188.1.2.3 bus2=B5186.1.2.3 length=84.124797 units=m linecode=OH-3X_477AAC_4/0AAACN phases=3 enabled=True
New Line.OH_B5193 bus1=B5194.1.2.3 bus2=B5193.1.2.3 length=44.195999 units=m linecode=OH-3X_477AAC_4/0AAACN phases=3 enabled=True
New Line.OH_B4536A bus1=B4536.1.2.3 bus2=B4536A.1.2.3 length=18.287999 units=m linecode=OH-3X_2CU_4CUN phases=3 enabled=False
New Line.OH_G35776 bus1=B60872.3 bus2=G35776.3 length=23.164799 units=m linecode=OH-1X_4CU_4CUN phases=1 enabled=True
New Line.OH_B18820 bus1=B4837.1.2.3 bus2=B18820.1.2.3 length=43.281599 units=m linecode=OH-3X_4CU_4CUN phases=3 enabled=True
New Line.OH_B41861 bus1=B41859.1.2 bus2=B41861.1.2 length=128.016 units=m linecode=OH-2X_4CU_4CUN phases=2 enabled=True
New Line.OH_B19013 bus1=B19011.1.2 bus2=B19013.1.2 length=91.135197 units=m linecode=OH-2X_4CU_4CUN phases=2 enabled=True
New Line.OH_B56325 bus1=B40571.1.2.3 bus2=B56325.1.2.3 length=9.7535997 units=m linecode=OH-3X_4CU_4CUN phases=3 enabled=True
New Line.OH_G42979 bus1=B60931.3 bus2=G42979.3 length=29.260799 units=m linecode=OH-1X_2AAAC_2AAACN phases=1 enabled=True
New Line.OH_5839828569 bus1=B45417.1.2.3 bus2=5839828569.1.2.3 length=113.6904 units=m linecode=OH-3X_2AAAC_2AAACN phases=3 enabled=True
New Line.OH_B60930 bus1=B60928.3 bus2=B60930.3 length=57.911998 units=m linecode=OH-1X_4CU_4CUN phases=1 enabled=True
New Line.OH_B12326 bus1=B19028.1.2 bus2=B12326.1.2 length=39.014399 units=m linecode=OH-2X_4CU_4CUN phases=2 enabled=True
New Line.OH_B58961 bus1=B18795.1 bus2=B58961.1 length=67.360798 units=m linecode=OH-1X_477AAC_4/0AAACN phases=1 enabled=True
New Line.OH_B61236 bus1=B61235.3 bus2=B61236.3 length=60.959998 units=m linecode=OH-1X_4CU_4CUN phases=1 enabled=True
New Line.OH_B18999 bus1=B18998.3 bus2=B18999.3 length=49.987198 units=m linecode=OH-1X_4CU_4CUN phases=1 enabled=True
New Line.OH_B4811 bus1=B4091.1.2.3 bus2=B4811.1.2.3 length=40.538399 units=m linecode=OH-3X_477AAC_1/0AAACN phases=3 enabled=True
New Line.OH_B37083 bus1=B23613.1.2.3 bus2=B37083.1.2.3 length=135.636 units=m linecode=OH-3X_4CU_4CUN phases=3 enabled=True
New Line.OH_B62314 bus1=B43433.1.2 bus2=B62314.1.2 length=27.736799 units=m linecode=OH-2X_4CU_4CUN phases=2 enabled=True
New Line.OH_G44010 bus1=G40234.1 bus2=G44010.1 length=50.291998 units=m linecode=OH-1X_2AAAC_2AAACN phases=1 enabled=True
New Line.OH_B28640 bus1=B28637.3 bus2=B28640.3 length=92.049597 units=m linecode=OH-1X_2/0CU_2/0CUN phases=1 enabled=True
New Line.OH_B23283 bus1=B5185.1.2.3 bus2=B23283.1.2.3 length=106.0704 units=m linecode=OH-3X_477AAC_4/0AAACN phases=3 enabled=True
New Line.OH_B4965 bus1=B4968.1.2.3 bus2=B4965.1.2.3 length=110.3376 units=m linecode=OH-3X_477AAC_4/0AAACN phases=3 enabled=True
New Line.OH_B41906 bus1=B35248.1 bus2=B41906.1 length=81.076797 units=m linecode=OH-1X_4CU_4CUN phases=1 enabled=True
New Line.OH_5932628553 bus1=B28087.3 bus2=5932628553.3 length=19.811999 units=m linecode=OH-1X_2AAAC_2AAACN phases=1 enabled=True
New Line.OH_B24506 bus1=B41462.3 bus2=B24506.3 length=52.425598 units=m linecode=OH-1X_4CU_4CUN phases=1 enabled=True
New Line.OH_B4729 bus1=B13649.3 bus2=B4729.3 length=52.425598 units=m linecode=OH-1X_4CU_4CUN phases=1 enabled=True
New Line.OH_B44725 bus1=G44010.1 bus2=B44725.1 length=112.776 units=m linecode=OH-1X_1/0AAAC_1/0AAACN phases=1 enabled=True
New Line.OH_B53877 bus1=B10927.3 bus2=B53877.3 length=22.859999 units=m linecode=OH-1X_4CU_4CUN phases=1 enabled=True
...
